Version 4.1
SHEET 1 2980 1316
WIRE 2128 -304 1232 -304
WIRE 2288 -304 2128 -304
WIRE 2288 -256 2288 -304
WIRE 1808 -176 1744 -176
WIRE 2128 -176 2128 -304
WIRE 2128 -176 2032 -176
WIRE 1744 -160 1744 -176
WIRE 1136 -144 1008 -144
WIRE 1232 -144 1232 -304
WIRE 1232 -144 1136 -144
WIRE 1008 -112 1008 -144
WIRE 1808 -112 1760 -112
WIRE 2288 -112 2288 -176
WIRE 2288 -112 2032 -112
WIRE 2416 -112 2288 -112
WIRE 1136 -96 1136 -144
WIRE 2288 -64 2288 -112
WIRE 1808 -48 1712 -48
WIRE 2032 -48 2016 -48
WIRE 2144 -48 2032 -48
WIRE 2416 -48 2416 -112
WIRE 1008 0 1008 -32
WIRE 1232 16 1232 -144
WIRE 1552 16 1232 16
WIRE 1808 16 1552 16
WIRE 2064 16 2032 16
WIRE 2112 80 2112 16
WIRE 2112 80 2064 80
WIRE 2144 80 2144 -48
WIRE 2288 80 2288 16
WIRE 2288 80 2144 80
WIRE 2416 80 2416 16
WIRE 2416 80 2288 80
WIRE 1712 96 1712 -48
WIRE -880 112 -880 64
WIRE 1760 112 1760 -112
WIRE 1952 112 1760 112
WIRE 2144 112 2144 80
WIRE 2144 112 1952 112
WIRE 1952 128 1952 112
WIRE 2000 128 1952 128
WIRE -416 160 -416 48
WIRE 0 160 0 16
WIRE 864 160 592 160
WIRE 1040 160 864 160
WIRE 1312 160 1040 160
WIRE 1408 160 1312 160
WIRE -1360 176 -1360 112
WIRE 864 192 864 160
WIRE 1040 192 1040 160
WIRE 2048 192 2000 192
WIRE -416 208 -416 160
WIRE -880 224 -880 112
WIRE 0 224 0 160
WIRE 1712 224 1712 176
WIRE 1808 224 1712 224
WIRE 2144 224 1808 224
WIRE -1360 240 -1360 176
WIRE 1712 256 1712 224
WIRE 1408 288 1408 160
WIRE 2144 304 2144 224
WIRE 592 368 592 160
WIRE 688 368 592 368
WIRE 864 368 768 368
WIRE 944 368 864 368
WIRE 1104 368 1024 368
WIRE 1552 384 1552 16
WIRE 1680 384 1552 384
WIRE 1712 384 1712 336
WIRE 2064 384 2000 384
WIRE 2096 384 2064 384
WIRE 2544 400 2448 400
WIRE 2560 400 2544 400
WIRE 2064 416 2064 384
WIRE 2144 416 2144 400
WIRE 1680 496 1680 384
WIRE 1776 496 1680 496
WIRE 2560 496 2560 400
WIRE 2576 496 2560 496
WIRE 2768 496 2656 496
WIRE 2848 496 2768 496
WIRE 2960 496 2928 496
WIRE 864 512 864 368
WIRE 1120 512 864 512
WIRE 2064 512 2064 496
WIRE 2960 512 2960 496
WIRE 1408 528 1408 368
WIRE 1456 528 1408 528
WIRE 1520 528 1456 528
WIRE 1616 528 1584 528
WIRE 2000 528 2000 384
WIRE 2032 528 2000 528
WIRE 2464 528 2304 528
WIRE 2544 528 2544 400
WIRE 2544 528 2464 528
WIRE 2144 544 2144 416
WIRE 2144 544 2128 544
WIRE 2240 544 2144 544
WIRE 2368 560 2304 560
WIRE 1520 576 1520 544
WIRE 1776 576 1776 496
WIRE 2032 576 2032 528
WIRE 2032 576 1936 576
WIRE 2240 576 2192 576
WIRE 2352 592 2304 592
WIRE 2384 592 2352 592
WIRE 2464 592 2464 528
WIRE 1312 624 1312 160
WIRE 1312 624 1280 624
WIRE 1616 624 1616 528
WIRE 1664 624 1616 624
WIRE 1936 624 1936 576
WIRE 1936 624 1888 624
WIRE -48 640 -160 640
WIRE 128 640 16 640
WIRE 256 640 128 640
WIRE 368 640 256 640
WIRE 576 640 368 640
WIRE 736 640 640 640
WIRE 864 640 736 640
WIRE 992 640 864 640
WIRE 1056 640 992 640
WIRE 1216 640 1056 640
WIRE 1328 656 1280 656
WIRE 1120 672 1120 512
WIRE 1216 672 1120 672
WIRE 1408 672 1408 528
WIRE 1424 672 1408 672
WIRE 2192 672 2192 576
WIRE 2768 672 2768 496
WIRE 2768 672 2192 672
WIRE 1056 688 1056 640
WIRE 1408 688 1408 672
WIRE 1408 688 1280 688
WIRE -160 736 -160 640
WIRE 1424 768 1424 672
WIRE 1424 768 1056 768
WIRE 2128 768 2128 544
WIRE 2352 784 2352 592
WIRE 2512 784 2432 784
WIRE 2560 784 2512 784
WIRE 2720 784 2640 784
WIRE -160 800 -160 736
WIRE 1776 800 1776 768
WIRE -960 816 -1088 816
WIRE -784 816 -896 816
WIRE -1088 848 -1088 816
WIRE -1088 896 -1088 848
WIRE 2512 896 2512 784
WIRE 2128 992 2128 832
WIRE 2512 992 2512 976
WIRE 2512 992 2128 992
WIRE 2512 1008 2512 992
FLAG -1360 320 0
FLAG -416 288 0
FLAG -1360 176 modulator
FLAG -416 160 carrier
FLAG -160 736 esu_out
FLAG 128 704 0
FLAG 256 720 0
FLAG 368 640 divider_out
FLAG 992 640 envelope
FLAG 736 720 0
FLAG 864 704 0
FLAG 864 272 0
FLAG 1456 528 comp_out
FLAG -160 880 0
FLAG 1104 368 0
FLAG 1328 656 0
FLAG 0 160 carrier5
FLAG -784 896 0
FLAG -1088 976 0
FLAG -1088 848 esu5_out
FLAG -880 304 0
FLAG -880 112 modulator_fast
FLAG 1744 -160 0
FLAG 2112 16 0
FLAG 1712 384 0
FLAG 1808 224 pulse_0.1V
FLAG 2144 416 Output
FLAG 2048 192 0
FLAG 1776 800 0
FLAG 1008 0 0
FLAG 1136 -32 0
FLAG 1040 256 0
FLAG 2448 480 0
FLAG 2960 512 0
FLAG 2368 560 0
FLAG 2720 784 0
FLAG 2512 1008 0
FLAG 2064 512 0
FLAG 1520 576 0
SYMBOL voltage -1360 224 R0
WINDOW 123 0 0 Left 0
WINDOW 39 0 0 Left 0
SYMATTR InstName modulator
SYMATTR Value PULSE(0 1 1ms 1u 1u 1ms 5ms)
SYMBOL voltage -416 192 R0
WINDOW 123 0 0 Left 0
WINDOW 39 0 0 Left 0
SYMATTR InstName carrier
SYMATTR Value SINE(925 925 357k)
SYMBOL bv -160 784 R0
SYMATTR InstName BV_esu
SYMATTR Value V=V(carrier) * V(modulator)
SYMBOL cap -48 624 M90
WINDOW 0 0 32 VBottom 2
WINDOW 3 32 32 VTop 2
SYMATTR InstName C1
SYMATTR Value 10p
SYMBOL cap 112 640 R0
SYMATTR InstName C2
SYMATTR Value 3.9n
SYMBOL res 240 624 R0
SYMATTR InstName R1
SYMATTR Value 10k
SYMBOL diode 576 656 R270
WINDOW 0 32 32 VTop 2
WINDOW 3 0 32 VBottom 2
SYMATTR InstName D1
SYMATTR Value 1N5817
SYMBOL res 720 624 R0
SYMATTR InstName R2
SYMATTR Value 5.6k
SYMBOL cap 848 640 R0
SYMATTR InstName C3
SYMATTR Value 1n
SYMBOL voltage 864 176 R0
WINDOW 123 0 0 Left 0
WINDOW 39 0 0 Left 0
SYMATTR InstName V1
SYMATTR Value 5
SYMBOL res 784 352 R90
WINDOW 0 0 56 VBottom 2
WINDOW 3 32 56 VTop 2
SYMATTR InstName R6
SYMATTR Value 47k
SYMBOL res 1040 352 R90
WINDOW 0 0 56 VBottom 2
WINDOW 3 32 56 VTop 2
SYMATTR InstName R3
SYMATTR Value 3k
SYMBOL res 1392 272 R0
SYMATTR InstName R4
SYMATTR Value 10k
SYMBOL LM393A 1248 656 R0
SYMATTR InstName U1
SYMBOL voltage 0 208 R0
WINDOW 123 0 0 Left 0
WINDOW 39 0 0 Left 0
SYMATTR InstName carrier5
SYMATTR Value SINE(2.5 2.5 357k)
SYMBOL bv -1088 880 R0
SYMATTR InstName BV_esu5
SYMATTR Value V=V(carrier5) * V(modulator)
SYMBOL res -800 800 R0
SYMATTR InstName R5
SYMATTR Value 10k
SYMBOL cap -896 800 R90
WINDOW 0 0 32 VBottom 2
WINDOW 3 32 32 VTop 2
SYMATTR InstName C4
SYMATTR Value 2.2n
SYMBOL voltage -880 208 R0
WINDOW 123 0 0 Left 0
WINDOW 39 0 0 Left 0
SYMATTR InstName modulator_fast
SYMATTR Value PULSE(0 1 1ms 1u 1u 8u 40u)
SYMBOL Misc\\NE555 1920 -80 R0
SYMATTR InstName U2
SYMBOL cap 2048 16 R0
SYMATTR InstName C5
SYMATTR Value 10n
SYMBOL res 2272 -272 R0
SYMATTR InstName R7
SYMATTR Value 15k
SYMBOL res 2272 -80 R0
SYMATTR InstName R8
SYMATTR Value 130k
SYMBOL diode 2400 -48 R0
SYMATTR InstName D2
SYMATTR Value 1N5817
SYMBOL res 1696 80 R0
SYMATTR InstName R9
SYMATTR Value 2k
SYMBOL res 1696 240 R0
SYMATTR InstName R10
SYMATTR Value 1k
SYMBOL nmos 2096 304 R0
SYMATTR InstName M1
SYMATTR Value 2N7002
SYMBOL cap 1984 128 R0
SYMATTR InstName C6
SYMATTR Value 0.01µ
SYMBOL res 1040 672 R0
SYMATTR InstName R12
SYMATTR Value 500k
SYMBOL PowerProducts\\LTC1157 1776 672 R0
SYMATTR InstName U3
SYMBOL voltage 1008 -128 R0
WINDOW 123 0 0 Left 0
WINDOW 39 0 0 Left 0
SYMATTR InstName V2
SYMATTR Value 5
SYMBOL cap 1120 -96 R0
SYMATTR InstName C7
SYMATTR Value 100µF
SYMBOL cap 1024 192 R0
SYMATTR InstName C8
SYMATTR Value 100µF
SYMBOL LM393A 2272 560 R0
SYMATTR InstName U4
SYMBOL voltage 2448 384 R0
WINDOW 123 0 0 Left 0
WINDOW 39 0 0 Left 0
SYMATTR InstName V3
SYMATTR Value 5
SYMBOL res 2672 480 R90
WINDOW 0 0 56 VBottom 2
WINDOW 3 32 56 VTop 2
SYMATTR InstName R11
SYMATTR Value 5k
SYMBOL res 2944 480 R90
WINDOW 0 0 56 VBottom 2
WINDOW 3 32 56 VTop 2
SYMATTR InstName R13
SYMATTR Value 1k
SYMBOL res 2480 576 R90
WINDOW 0 0 56 VBottom 2
WINDOW 3 32 56 VTop 2
SYMATTR InstName R14
SYMATTR Value 1k
SYMBOL res 2448 768 R90
WINDOW 0 0 56 VBottom 2
WINDOW 3 32 56 VTop 2
SYMATTR InstName R15
SYMATTR Value 43k
SYMBOL res 2656 768 R90
WINDOW 0 0 56 VBottom 2
WINDOW 3 32 56 VTop 2
SYMATTR InstName R16
SYMATTR Value 1k
SYMBOL res 2496 880 R0
SYMATTR InstName Rload
SYMATTR Value 10k
SYMBOL diode 2144 832 R180
WINDOW 0 24 64 Left 2
WINDOW 3 24 0 Left 2
SYMATTR InstName D3
SYMATTR Value 1N5817
SYMBOL res 2048 400 R0
SYMATTR InstName R17
SYMATTR Value 100k
SYMBOL Digital\\inv 1520 464 R0
WINDOW 3 8 60 Invisible 2
SYMATTR Value Vhigh=5 Vlow=0 Ref=2.5
SYMATTR InstName A1
TEXT 480 840 Left 2 !.tran 20ms
