Version 4.1
SHEET 1 1636 1124
WIRE -880 112 -880 64
WIRE -416 160 -416 48
WIRE 0 160 0 16
WIRE 864 160 592 160
WIRE 1312 160 864 160
WIRE 1408 160 1312 160
WIRE -1360 176 -1360 112
WIRE 864 192 864 160
WIRE -416 208 -416 160
WIRE -880 224 -880 112
WIRE 0 224 0 160
WIRE -1360 240 -1360 176
WIRE 1408 288 1408 160
WIRE 592 368 592 160
WIRE 688 368 592 368
WIRE 864 368 768 368
WIRE 944 368 864 368
WIRE 1104 368 1024 368
WIRE 864 512 864 368
WIRE 1120 512 864 512
WIRE 1408 528 1408 368
WIRE 1456 528 1408 528
WIRE 1520 528 1456 528
WIRE 1312 624 1312 160
WIRE 1312 624 1280 624
WIRE -64 640 -176 640
WIRE 112 640 0 640
WIRE 240 640 112 640
WIRE 368 640 240 640
WIRE 576 640 368 640
WIRE 736 640 640 640
WIRE 864 640 736 640
WIRE 992 640 864 640
WIRE 1216 640 992 640
WIRE 1328 656 1280 656
WIRE 1120 672 1120 512
WIRE 1216 672 1120 672
WIRE 1408 688 1408 528
WIRE 1408 688 1280 688
WIRE -176 736 -176 640
WIRE -176 800 -176 736
WIRE -2128 944 -2256 944
WIRE -1952 944 -2064 944
WIRE -2256 976 -2256 944
WIRE -2256 1024 -2256 976
FLAG -1360 320 0
FLAG -416 288 0
FLAG -1360 176 modulator
FLAG -416 160 carrier
FLAG -176 736 esu_out
FLAG 112 704 0
FLAG 240 720 0
FLAG 368 640 divider_out
FLAG 992 640 envelope
FLAG 736 720 0
FLAG 864 704 0
FLAG 864 272 0
FLAG 1456 528 comp_out
FLAG -176 880 0
FLAG 1104 368 0
FLAG 1328 656 0
FLAG 0 160 carrier5
FLAG -1952 1024 0
FLAG -2256 1104 0
FLAG -2256 976 esu5_out
FLAG -880 304 0
FLAG -880 112 modulator_fast
SYMBOL voltage -1360 224 R0
WINDOW 123 0 0 Left 0
WINDOW 39 0 0 Left 0
SYMATTR InstName modulator
SYMATTR Value PULSE(0 1 1ms 1u 1u 1ms 5ms)
SYMBOL voltage -416 192 R0
WINDOW 123 0 0 Left 0
WINDOW 39 0 0 Left 0
SYMATTR InstName carrier
SYMATTR Value SINE(925 925 357k)
SYMBOL bv -176 784 R0
SYMATTR InstName BV_esu
SYMATTR Value V=V(carrier) * V(modulator)
SYMBOL cap -64 624 M90
WINDOW 0 0 32 VBottom 2
WINDOW 3 32 32 VTop 2
SYMATTR InstName C1
SYMATTR Value 10p
SYMBOL cap 96 640 R0
SYMATTR InstName C2
SYMATTR Value 3.9n
SYMBOL res 224 624 R0
SYMATTR InstName R1
SYMATTR Value 10k
SYMBOL diode 576 656 R270
WINDOW 0 32 32 VTop 2
WINDOW 3 0 32 VBottom 2
SYMATTR InstName D1
SYMATTR Value 1N5817
SYMBOL res 720 624 R0
SYMATTR InstName R2
SYMATTR Value 5.6k
SYMBOL cap 848 640 R0
SYMATTR InstName C3
SYMATTR Value 1n
SYMBOL voltage 864 176 R0
WINDOW 123 0 0 Left 0
WINDOW 39 0 0 Left 0
SYMATTR InstName V1
SYMATTR Value 5
SYMBOL res 784 352 R90
WINDOW 0 0 56 VBottom 2
WINDOW 3 32 56 VTop 2
SYMATTR InstName R6
SYMATTR Value 47k
SYMBOL res 1040 352 R90
WINDOW 0 0 56 VBottom 2
WINDOW 3 32 56 VTop 2
SYMATTR InstName R3
SYMATTR Value 3k
SYMBOL res 1392 272 R0
SYMATTR InstName R4
SYMATTR Value 10k
SYMBOL LM393A 1248 656 R0
SYMATTR InstName U1
SYMBOL voltage 0 208 R0
WINDOW 123 0 0 Left 0
WINDOW 39 0 0 Left 0
SYMATTR InstName carrier5
SYMATTR Value SINE(2.5 2.5 357k)
SYMBOL bv -2256 1008 R0
SYMATTR InstName BV_esu5
SYMATTR Value V=V(carrier5) * V(modulator)
SYMBOL res -1968 928 R0
SYMATTR InstName R5
SYMATTR Value 10k
SYMBOL cap -2064 928 R90
WINDOW 0 0 32 VBottom 2
WINDOW 3 32 32 VTop 2
SYMATTR InstName C4
SYMATTR Value 2.2n
SYMBOL voltage -880 208 R0
WINDOW 123 0 0 Left 0
WINDOW 39 0 0 Left 0
SYMATTR InstName modulator_fast
SYMATTR Value PULSE(0 1 1ms 1u 1u 8u 40u)
TEXT 480 840 Left 2 !.tran 20ms
